1TUP_prima1_0
 OpenBabel09042615083D

 15 16  0  0  0  0  0  0  0  0999 V2000
   47.2660    3.9740   82.6900 O   0  0  0  0  0
   49.4980    6.7080   81.9180 N   0  0  0  0  0
   49.2010    5.4550   82.6870 C   0  0  0  0  0
   47.1480    5.8680   81.2040 C   0  0  0  0  0
   48.1090    5.8900   80.0110 C   0  0  0  0  0
   47.0640    7.2590   81.8410 C   0  0  0  0  0
   49.4680    6.4590   80.4540 C   0  0  0  0  0
   48.4790    7.7550   82.1860 C   0  0  0  0  0
   47.8080    4.9820   82.2440 C   0  0  0  0  0
   49.1940    5.7060   84.2050 C   0  0  0  0  0
   50.4960    5.4620   84.6950 O   0  0  0  0  0
   50.8970    4.7740   84.1360 H   0  0  0  0  0
   50.2310    4.3480   82.3920 C   0  0  0  0  0
   49.9420    3.2480   83.2280 O   0  0  0  0  0
   50.3130    2.4520   82.8100 H   0  0  0  0  0
  9  1  2  0  0  0
  7  2  1  0  0  0
  2  8  1  0  0  0
  2  3  1  0  0  0
  9  3  1  0  0  0
 13  3  1  0  0  0
  3 10  1  0  0  0
  5  4  1  0  0  0
  4  6  1  0  0  0
  4  9  1  0  0  0
  5  7  1  0  0  0
  6  8  1  0  0  0
 10 11  1  0  0  0
 12 11  1  0  0  0
 13 14  1  0  0  0
 15 14  1  0  0  0
M  RAD  7   4   2   5   3   6   3   7   3   8   3  10   3  13   3
M  END
>  <Vina Binding Affinity>
-5.4

$$$$
