322968
  -OEChem-09032622333D

 28 29  0     0  0  0  0  0  0999 V2000
    0.3796   -1.9357    1.1759 O   0  0  0  0  0  0  0  0  0  0  0  0
    2.2358    1.8600    0.3101 O   0  0  0  0  0  0  0  0  0  0  0  0
    2.4333   -1.3556   -0.5442 O   0  0  0  0  0  0  0  0  0  0  0  0
   -0.3855    1.0802   -0.6613 N   0  0  0  0  0  0  0  0  0  0  0  0
    0.6270    0.1376   -0.0802 C   0  0  0  0  0  0  0  0  0  0  0  0
   -1.6668   -0.8556    0.5006 C   0  0  0  0  0  0  0  0  0  0  0  0
   -1.9804   -0.8116   -0.9978 C   0  0  0  0  0  0  0  0  0  0  0  0
   -2.0003    0.4906    1.1499 C   0  0  0  0  0  0  0  0  0  0  0  0
   -1.2621    0.3881   -1.6403 C   0  0  0  0  0  0  0  0  0  0  0  0
   -1.2811    1.6209    0.3927 C   0  0  0  0  0  0  0  0  0  0  0  0
   -0.1585   -0.9947    0.5988 C   0  0  0  0  0  0  0  0  0  0  0  0
    1.5194    0.8336    0.9629 C   0  0  0  0  0  0  0  0  0  0  0  0
    1.5396   -0.4578   -1.1671 C   0  0  0  0  0  0  0  0  0  0  0  0
   -2.1646   -1.6901    1.0018 H   0  0  0  0  0  0  0  0  0  0  0  0
   -3.0619   -0.7282   -1.1555 H   0  0  0  0  0  0  0  0  0  0  0  0
   -1.6454   -1.7392   -1.4780 H   0  0  0  0  0  0  0  0  0  0  0  0
   -1.6788    0.4903    2.1986 H   0  0  0  0  0  0  0  0  0  0  0  0
   -3.0831    0.6600    1.1347 H   0  0  0  0  0  0  0  0  0  0  0  0
   -0.7034    0.0776   -2.5295 H   0  0  0  0  0  0  0  0  0  0  0  0
   -2.0070    1.0961   -2.0278 H   0  0  0  0  0  0  0  0  0  0  0  0
   -2.0263    2.2837   -0.0677 H   0  0  0  0  0  0  0  0  0  0  0  0
   -0.7412    2.2733    1.0868 H   0  0  0  0  0  0  0  0  0  0  0  0
    2.2402    0.1463    1.4186 H   0  0  0  0  0  0  0  0  0  0  0  0
    0.9632    1.2574    1.8045 H   0  0  0  0  0  0  0  0  0  0  0  0
    2.1020    0.3009   -1.7223 H   0  0  0  0  0  0  0  0  0  0  0  0
    0.9813   -1.0553   -1.8930 H   0  0  0  0  0  0  0  0  0  0  0  0
    1.5878    2.4837   -0.0592 H   0  0  0  0  0  0  0  0  0  0  0  0
    3.2133   -0.8504   -0.2588 H   0  0  0  0  0  0  0  0  0  0  0  0
  1 11  2  0  0  0  0
  2 12  1  0  0  0  0
  2 27  1  0  0  0  0
  3 13  1  0  0  0  0
  3 28  1  0  0  0  0
  4  5  1  0  0  0  0
  4  9  1  0  0  0  0
  4 10  1  0  0  0  0
  5 11  1  0  0  0  0
  5 12  1  0  0  0  0
  5 13  1  0  0  0  0
  6  7  1  0  0  0  0
  6  8  1  0  0  0  0
  6 11  1  0  0  0  0
  6 14  1  0  0  0  0
  7  9  1  0  0  0  0
  7 15  1  0  0  0  0
  7 16  1  0  0  0  0
  8 10  1  0  0  0  0
  8 17  1  0  0  0  0
  8 18  1  0  0  0  0
  9 19  1  0  0  0  0
  9 20  1  0  0  0  0
 10 21  1  0  0  0  0
 10 22  1  0  0  0  0
 12 23  1  0  0  0  0
 12 24  1  0  0  0  0
 13 25  1  0  0  0  0
 13 26  1  0  0  0  0
M  END
> <PUBCHEM_COMPOUND_CID>
322968

> <PUBCHEM_CONFORMER_RMSD>
0.6

> <PUBCHEM_CONFORMER_DIVERSEORDER>
2
1

> <PUBCHEM_MMFF94_PARTIAL_CHARGES>
13
1 -0.57
10 0.27
11 0.45
12 0.28
13 0.28
2 -0.68
27 0.4
28 0.4
3 -0.68
4 -0.81
5 0.33
6 0.06
9 0.27

> <PUBCHEM_EFFECTIVE_ROTOR_COUNT>
3

> <PUBCHEM_PHARMACOPHORE_FEATURES>
7
1 1 acceptor
1 2 acceptor
1 2 donor
1 3 acceptor
1 3 donor
1 4 cation
8 4 5 6 7 8 9 10 11 rings

> <PUBCHEM_HEAVY_ATOM_COUNT>
13

> <PUBCHEM_ATOM_DEF_STEREO_COUNT>
0

> <PUBCHEM_ATOM_UDEF_STEREO_COUNT>
0

> <PUBCHEM_BOND_DEF_STEREO_COUNT>
0

> <PUBCHEM_BOND_UDEF_STEREO_COUNT>
0

> <PUBCHEM_ISOTOPIC_ATOM_COUNT>
0

> <PUBCHEM_COMPONENT_COUNT>
1

> <PUBCHEM_CACTVS_TAUTO_COUNT>
1

> <PUBCHEM_CONFORMER_ID>
0004ED9800000002

> <PUBCHEM_MMFF94_ENERGY>
37.2696

> <PUBCHEM_FEATURE_SELFOVERLAP>
35.526

> <PUBCHEM_SHAPE_FINGERPRINT>
12423570 1 12047031349040617885
13024252 1 11676033456601340614
137420 1 18127955439186215877
14817 1 13901346052585416653
15557651 10 18048051678601423853
16945 1 17914361003302392657
21501502 16 18273221910536500912
21922407 69 18271224067838779811
22344851 12 11897268033819802325
23419403 2 16539302269902368587
241688 4 18410579469935575017
2748010 2 18188215402370553163
369184 2 17533194569832021193
5084963 1 17894357661104156238
528886 8 17387156207059428286
54276843 12 17098094681874457817
68250623 7 17917443037474270429

> <PUBCHEM_SHAPE_MULTIPOLES>
244.94
2.85
1.74
1.4
0.75
0.19
-0.22
0.08
-0.12
0.46
0.33
-0.33
-0.19
0.08

> <PUBCHEM_SHAPE_SELFOVERLAP>
514.725

> <PUBCHEM_SHAPE_VOLUME>
135.5

> <PUBCHEM_COORDINATE_TYPE>
2
5
10

$$$$
